424
generated by make_xyz.sh. Files needed 1x1x1_{sbu,ligand}.{xyz,txt}.Packing: 0.1 1.1,  0.1 1.1,  0.1 1.1
Zn1 7.579109 5.336891 5.336891
O1 6.458000 6.458000 6.458000
Zn1 5.336891 7.579109 5.336891
Zn1 5.336891 5.336891 7.579109
Zn1 7.579109 7.579109 7.579109
Zn1 18.252891 20.495109 5.336891
O1 19.374000 19.374000 6.458000
Zn1 20.495109 18.252891 5.336891
Zn1 20.495109 20.495109 7.579109
Zn1 18.252891 18.252891 7.579109
Zn1 18.252891 5.336891 20.495109
O1 19.374000 6.458000 19.374000
Zn1 20.495109 7.579109 20.495109
Zn1 20.495109 5.336891 18.252891
Zn1 18.252891 7.579109 18.252891
Zn1 7.579109 20.495109 20.495109
O1 6.458000 19.374000 19.374000
Zn1 5.336891 18.252891 20.495109
Zn1 5.336891 20.495109 18.252891
Zn1 7.579109 18.252891 18.252891
Zn1 5.336891 7.579109 20.495109
O1 6.458000 6.458000 19.374000
Zn1 7.579109 5.336891 20.495109
Zn1 5.336891 5.336891 18.252891
Zn1 7.579109 7.579109 18.252891
Zn1 20.495109 18.252891 20.495109
O1 19.374000 19.374000 19.374000
Zn1 18.252891 20.495109 20.495109
Zn1 20.495109 20.495109 18.252891
Zn1 18.252891 18.252891 18.252891
Zn1 5.336891 18.252891 5.336891
O1 6.458000 19.374000 6.458000
Zn1 7.579109 20.495109 5.336891
Zn1 5.336891 20.495109 7.579109
Zn1 7.579109 18.252891 7.579109
Zn1 20.495109 7.579109 5.336891
O1 19.374000 6.458000 6.458000
Zn1 18.252891 5.336891 5.336891
Zn1 20.495109 5.336891 7.579109
Zn1 18.252891 7.579109 7.579109
O2 7.282041 5.633959 29.293488
C1 6.458000 6.458000 28.707102
C2 6.458000 6.458000 27.221762
C3 7.307873 5.608127 26.526881
H1 7.876177 5.039823 26.989274
O2 7.282041 5.633959 22.370512
C1 6.458000 6.458000 22.956898
C2 6.458000 6.458000 24.442238
C3 7.307873 5.608127 25.137119
H1 7.876177 5.039823 24.674726
O2 5.633959 7.282041 29.293488
C3 5.608127 7.307873 26.526881
H1 5.039823 7.876177 26.989274
O2 5.633959 7.282041 22.370512
C3 5.608127 7.307873 25.137119
H1 5.039823 7.876177 24.674726
O2 18.549959 20.198041 29.293488
C1 19.374000 19.374000 28.707102
C2 19.374000 19.374000 27.221762
C3 18.524127 20.223873 26.526881
H1 17.955823 20.792177 26.989274
O2 18.549959 20.198041 22.370512
C1 19.374000 19.374000 22.956898
C2 19.374000 19.374000 24.442238
C3 18.524127 20.223873 25.137119
H1 17.955823 20.792177 24.674726
O2 20.198041 18.549959 29.293488
C3 20.223873 18.524127 26.526881
H1 20.792177 17.955823 26.989274
O2 20.198041 18.549959 22.370512
C3 20.223873 18.524127 25.137119
H1 20.792177 17.955823 24.674726
O2 18.549959 5.633959 22.370512
C1 19.374000 6.458000 22.956898
C2 19.374000 6.458000 24.442238
C3 18.524127 5.608127 25.137119
H1 17.955823 5.039823 24.674726
O2 18.549959 5.633959 29.293488
C1 19.374000 6.458000 28.707102
C2 19.374000 6.458000 27.221762
C3 18.524127 5.608127 26.526881
H1 17.955823 5.039823 26.989274
O2 20.198041 7.282041 22.370512
C3 20.223873 7.307873 25.137119
H1 20.792177 7.876177 24.674726
O2 20.198041 7.282041 29.293488
C3 20.223873 7.307873 26.526881
H1 20.792177 7.876177 26.989274
O2 7.282041 20.198041 22.370512
C1 6.458000 19.374000 22.956898
C2 6.458000 19.374000 24.442238
C3 7.307873 20.223873 25.137119
H1 7.876177 20.792177 24.674726
O2 7.282041 20.198041 29.293488
C1 6.458000 19.374000 28.707102
C2 6.458000 19.374000 27.221762
C3 7.307873 20.223873 26.526881
H1 7.876177 20.792177 26.989274
O2 5.633959 18.549959 22.370512
C3 5.608127 18.524127 25.137119
H1 5.039823 17.955823 24.674726
O2 5.633959 18.549959 29.293488
C3 5.608127 18.524127 26.526881
H1 5.039823 17.955823 26.989274
O2 29.293488 7.282041 5.633959
C1 28.707102 6.458000 6.458000
C2 27.221762 6.458000 6.458000
C3 26.526881 7.307873 5.608127
H1 26.989274 7.876177 5.039823
O2 22.370512 7.282041 5.633959
C1 22.956898 6.458000 6.458000
C2 24.442238 6.458000 6.458000
C3 25.137119 7.307873 5.608127
H1 24.674726 7.876177 5.039823
O2 29.293488 5.633959 7.282041
C3 26.526881 5.608127 7.307873
H1 26.989274 5.039823 7.876177
O2 22.370512 5.633959 7.282041
C3 25.137119 5.608127 7.307873
H1 24.674726 5.039823 7.876177
O2 29.293488 18.549959 20.198041
C1 28.707102 19.374000 19.374000
C2 27.221762 19.374000 19.374000
C3 26.526881 18.524127 20.223873
H1 26.989274 17.955823 20.792177
O2 22.370512 18.549959 20.198041
C1 22.956898 19.374000 19.374000
C2 24.442238 19.374000 19.374000
C3 25.137119 18.524127 20.223873
H1 24.674726 17.955823 20.792177
O2 29.293488 20.198041 18.549959
C3 26.526881 20.223873 18.524127
H1 26.989274 20.792177 17.955823
O2 22.370512 20.198041 18.549959
C3 25.137119 20.223873 18.524127
H1 24.674726 20.792177 17.955823
O2 22.370512 18.549959 5.633959
C1 22.956898 19.374000 6.458000
C2 24.442238 19.374000 6.458000
C3 25.137119 18.524127 5.608127
H1 24.674726 17.955823 5.039823
O2 29.293488 18.549959 5.633959
C1 28.707102 19.374000 6.458000
C2 27.221762 19.374000 6.458000
C3 26.526881 18.524127 5.608127
H1 26.989274 17.955823 5.039823
O2 22.370512 20.198041 7.282041
C3 25.137119 20.223873 7.307873
H1 24.674726 20.792177 7.876177
O2 29.293488 20.198041 7.282041
C3 26.526881 20.223873 7.307873
H1 26.989274 20.792177 7.876177
O2 22.370512 7.282041 20.198041
C1 22.956898 6.458000 19.374000
C2 24.442238 6.458000 19.374000
C3 25.137119 7.307873 20.223873
H1 24.674726 7.876177 20.792177
O2 29.293488 7.282041 20.198041
C1 28.707102 6.458000 19.374000
C2 27.221762 6.458000 19.374000
C3 26.526881 7.307873 20.223873
H1 26.989274 7.876177 20.792177
O2 22.370512 5.633959 18.549959
C3 25.137119 5.608127 18.524127
H1 24.674726 5.039823 17.955823
O2 29.293488 5.633959 18.549959
C3 26.526881 5.608127 18.524127
H1 26.989274 5.039823 17.955823
O2 5.633959 29.293488 7.282041
C1 6.458000 28.707102 6.458000
C2 6.458000 27.221762 6.458000
C3 5.608127 26.526881 7.307873
H1 5.039823 26.989274 7.876177
O2 5.633959 22.370512 7.282041
C1 6.458000 22.956898 6.458000
C2 6.458000 24.442238 6.458000
C3 5.608127 25.137119 7.307873
H1 5.039823 24.674726 7.876177
O2 7.282041 29.293488 5.633959
C3 7.307873 26.526881 5.608127
H1 7.876177 26.989274 5.039823
O2 7.282041 22.370512 5.633959
C3 7.307873 25.137119 5.608127
H1 7.876177 24.674726 5.039823
O2 20.198041 29.293488 18.549959
C1 19.374000 28.707102 19.374000
C2 19.374000 27.221762 19.374000
C3 20.223873 26.526881 18.524127
H1 20.792177 26.989274 17.955823
O2 20.198041 22.370512 18.549959
C1 19.374000 22.956898 19.374000
C2 19.374000 24.442238 19.374000
C3 20.223873 25.137119 18.524127
H1 20.792177 24.674726 17.955823
O2 18.549959 29.293488 20.198041
C3 18.524127 26.526881 20.223873
H1 17.955823 26.989274 20.792177
O2 18.549959 22.370512 20.198041
C3 18.524127 25.137119 20.223873
H1 17.955823 24.674726 20.792177
O2 5.633959 22.370512 18.549959
C1 6.458000 22.956898 19.374000
C2 6.458000 24.442238 19.374000
C3 5.608127 25.137119 18.524127
H1 5.039823 24.674726 17.955823
O2 5.633959 29.293488 18.549959
C1 6.458000 28.707102 19.374000
C2 6.458000 27.221762 19.374000
C3 5.608127 26.526881 18.524127
H1 5.039823 26.989274 17.955823
O2 7.282041 22.370512 20.198041
C3 7.307873 25.137119 20.223873
H1 7.876177 24.674726 20.792177
O2 7.282041 29.293488 20.198041
C3 7.307873 26.526881 20.223873
H1 7.876177 26.989274 20.792177
O2 20.198041 22.370512 7.282041
C1 19.374000 22.956898 6.458000
C2 19.374000 24.442238 6.458000
C3 20.223873 25.137119 7.307873
H1 20.792177 24.674726 7.876177
O2 20.198041 29.293488 7.282041
C1 19.374000 28.707102 6.458000
C2 19.374000 27.221762 6.458000
C3 20.223873 26.526881 7.307873
H1 20.792177 26.989274 7.876177
O2 18.549959 22.370512 5.633959
C3 18.524127 25.137119 5.608127
H1 17.955823 24.674726 5.039823
O2 18.549959 29.293488 5.633959
C3 18.524127 26.526881 5.608127
H1 17.955823 26.989274 5.039823
O2 7.282041 18.549959 16.377488
C1 6.458000 19.374000 15.791102
C2 6.458000 19.374000 14.305762
C3 7.307873 18.524127 13.610881
H1 7.876177 17.955823 14.073274
O2 7.282041 18.549959 9.454512
C1 6.458000 19.374000 10.040898
C2 6.458000 19.374000 11.526238
C3 7.307873 18.524127 12.221119
H1 7.876177 17.955823 11.758726
O2 5.633959 20.198041 16.377488
C3 5.608127 20.223873 13.610881
H1 5.039823 20.792177 14.073274
O2 5.633959 20.198041 9.454512
C3 5.608127 20.223873 12.221119
H1 5.039823 20.792177 11.758726
O2 18.549959 7.282041 16.377488
C1 19.374000 6.458000 15.791102
C2 19.374000 6.458000 14.305762
C3 18.524127 7.307873 13.610881
H1 17.955823 7.876177 14.073274
O2 18.549959 7.282041 9.454512
C1 19.374000 6.458000 10.040898
C2 19.374000 6.458000 11.526238
C3 18.524127 7.307873 12.221119
H1 17.955823 7.876177 11.758726
O2 20.198041 5.633959 16.377488
C3 20.223873 5.608127 13.610881
H1 20.792177 5.039823 14.073274
O2 20.198041 5.633959 9.454512
C3 20.223873 5.608127 12.221119
H1 20.792177 5.039823 11.758726
O2 18.549959 18.549959 9.454512
C1 19.374000 19.374000 10.040898
C2 19.374000 19.374000 11.526238
C3 18.524127 18.524127 12.221119
H1 17.955823 17.955823 11.758726
O2 18.549959 18.549959 16.377488
C1 19.374000 19.374000 15.791102
C2 19.374000 19.374000 14.305762
C3 18.524127 18.524127 13.610881
H1 17.955823 17.955823 14.073274
O2 20.198041 20.198041 9.454512
C3 20.223873 20.223873 12.221119
H1 20.792177 20.792177 11.758726
O2 20.198041 20.198041 16.377488
C3 20.223873 20.223873 13.610881
H1 20.792177 20.792177 14.073274
O2 7.282041 7.282041 9.454512
C1 6.458000 6.458000 10.040898
C2 6.458000 6.458000 11.526238
C3 7.307873 7.307873 12.221119
H1 7.876177 7.876177 11.758726
O2 7.282041 7.282041 16.377488
C1 6.458000 6.458000 15.791102
C2 6.458000 6.458000 14.305762
C3 7.307873 7.307873 13.610881
H1 7.876177 7.876177 14.073274
O2 5.633959 5.633959 9.454512
C3 5.608127 5.608127 12.221119
H1 5.039823 5.039823 11.758726
O2 5.633959 5.633959 16.377488
C3 5.608127 5.608127 13.610881
H1 5.039823 5.039823 14.073274
O2 5.633959 16.377488 20.198041
C1 6.458000 15.791102 19.374000
C2 6.458000 14.305762 19.374000
C3 5.608127 13.610881 20.223873
H1 5.039823 14.073274 20.792177
O2 5.633959 9.454512 20.198041
C1 6.458000 10.040898 19.374000
C2 6.458000 11.526238 19.374000
C3 5.608127 12.221119 20.223873
H1 5.039823 11.758726 20.792177
O2 7.282041 16.377488 18.549959
C3 7.307873 13.610881 18.524127
H1 7.876177 14.073274 17.955823
O2 7.282041 9.454512 18.549959
C3 7.307873 12.221119 18.524127
H1 7.876177 11.758726 17.955823
O2 20.198041 16.377488 5.633959
C1 19.374000 15.791102 6.458000
C2 19.374000 14.305762 6.458000
C3 20.223873 13.610881 5.608127
H1 20.792177 14.073274 5.039823
O2 20.198041 9.454512 5.633959
C1 19.374000 10.040898 6.458000
C2 19.374000 11.526238 6.458000
C3 20.223873 12.221119 5.608127
H1 20.792177 11.758726 5.039823
O2 18.549959 16.377488 7.282041
C3 18.524127 13.610881 7.307873
H1 17.955823 14.073274 7.876177
O2 18.549959 9.454512 7.282041
C3 18.524127 12.221119 7.307873
H1 17.955823 11.758726 7.876177
O2 5.633959 9.454512 5.633959
C1 6.458000 10.040898 6.458000
C2 6.458000 11.526238 6.458000
C3 5.608127 12.221119 5.608127
H1 5.039823 11.758726 5.039823
O2 5.633959 16.377488 5.633959
C1 6.458000 15.791102 6.458000
C2 6.458000 14.305762 6.458000
C3 5.608127 13.610881 5.608127
H1 5.039823 14.073274 5.039823
O2 7.282041 9.454512 7.282041
C3 7.307873 12.221119 7.307873
H1 7.876177 11.758726 7.876177
O2 7.282041 16.377488 7.282041
C3 7.307873 13.610881 7.307873
H1 7.876177 14.073274 7.876177
O2 20.198041 9.454512 20.198041
C1 19.374000 10.040898 19.374000
C2 19.374000 11.526238 19.374000
C3 20.223873 12.221119 20.223873
H1 20.792177 11.758726 20.792177
O2 20.198041 16.377488 20.198041
C1 19.374000 15.791102 19.374000
C2 19.374000 14.305762 19.374000
C3 20.223873 13.610881 20.223873
H1 20.792177 14.073274 20.792177
O2 18.549959 9.454512 18.549959
C3 18.524127 12.221119 18.524127
H1 17.955823 11.758726 17.955823
O2 18.549959 16.377488 18.549959
C3 18.524127 13.610881 18.524127
H1 17.955823 14.073274 17.955823
O2 16.377488 7.282041 18.549959
C1 15.791102 6.458000 19.374000
C2 14.305762 6.458000 19.374000
C3 13.610881 7.307873 18.524127
H1 14.073274 7.876177 17.955823
O2 9.454512 7.282041 18.549959
C1 10.040898 6.458000 19.374000
C2 11.526238 6.458000 19.374000
C3 12.221119 7.307873 18.524127
H1 11.758726 7.876177 17.955823
O2 16.377488 5.633959 20.198041
C3 13.610881 5.608127 20.223873
H1 14.073274 5.039823 20.792177
O2 9.454512 5.633959 20.198041
C3 12.221119 5.608127 20.223873
H1 11.758726 5.039823 20.792177
O2 16.377488 18.549959 7.282041
C1 15.791102 19.374000 6.458000
C2 14.305762 19.374000 6.458000
C3 13.610881 18.524127 7.307873
H1 14.073274 17.955823 7.876177
O2 9.454512 18.549959 7.282041
C1 10.040898 19.374000 6.458000
C2 11.526238 19.374000 6.458000
C3 12.221119 18.524127 7.307873
H1 11.758726 17.955823 7.876177
O2 16.377488 20.198041 5.633959
C3 13.610881 20.223873 5.608127
H1 14.073274 20.792177 5.039823
O2 9.454512 20.198041 5.633959
C3 12.221119 20.223873 5.608127
H1 11.758726 20.792177 5.039823
O2 9.454512 18.549959 18.549959
C1 10.040898 19.374000 19.374000
C2 11.526238 19.374000 19.374000
C3 12.221119 18.524127 18.524127
H1 11.758726 17.955823 17.955823
O2 16.377488 18.549959 18.549959
C1 15.791102 19.374000 19.374000
C2 14.305762 19.374000 19.374000
C3 13.610881 18.524127 18.524127
H1 14.073274 17.955823 17.955823
O2 9.454512 20.198041 20.198041
C3 12.221119 20.223873 20.223873
H1 11.758726 20.792177 20.792177
O2 16.377488 20.198041 20.198041
C3 13.610881 20.223873 20.223873
H1 14.073274 20.792177 20.792177
O2 9.454512 7.282041 7.282041
C1 10.040898 6.458000 6.458000
C2 11.526238 6.458000 6.458000
C3 12.221119 7.307873 7.307873
H1 11.758726 7.876177 7.876177
O2 16.377488 7.282041 7.282041
C1 15.791102 6.458000 6.458000
C2 14.305762 6.458000 6.458000
C3 13.610881 7.307873 7.307873
H1 14.073274 7.876177 7.876177
O2 9.454512 5.633959 5.633959
C3 12.221119 5.608127 5.608127
H1 11.758726 5.039823 5.039823
O2 16.377488 5.633959 5.633959
C3 13.610881 5.608127 5.608127
H1 14.073274 5.039823 5.039823
