96
 generated by VMD
 O2         7.282041        5.633959       29.293488
 O2         7.282041        5.633959       22.370512
 O2         5.633959        7.282041       29.293488
 O2         5.633959        7.282041       22.370512
 O2        18.549959       20.198042       29.293488
 O2        18.549959       20.198042       22.370512
 O2        20.198042       18.549959       29.293488
 O2        20.198042       18.549959       22.370512
 O2        18.549959        5.633959       22.370512
 O2        18.549959        5.633959       29.293488
 O2        20.198042        7.282041       22.370512
 O2        20.198042        7.282041       29.293488
 O2         7.282041       20.198042       22.370512
 O2         7.282041       20.198042       29.293488
 O2         5.633959       18.549959       22.370512
 O2         5.633959       18.549959       29.293488
 O2        29.293488        7.282041        5.633959
 O2        22.370512        7.282041        5.633959
 O2        29.293488        5.633959        7.282041
 O2        22.370512        5.633959        7.282041
 O2        29.293488       18.549959       20.198042
 O2        22.370512       18.549959       20.198042
 O2        29.293488       20.198042       18.549959
 O2        22.370512       20.198042       18.549959
 O2        22.370512       18.549959        5.633959
 O2        29.293488       18.549959        5.633959
 O2        22.370512       20.198042        7.282041
 O2        29.293488       20.198042        7.282041
 O2        22.370512        7.282041       20.198042
 O2        29.293488        7.282041       20.198042
 O2        22.370512        5.633959       18.549959
 O2        29.293488        5.633959       18.549959
 O2         5.633959       29.293488        7.282041
 O2         5.633959       22.370512        7.282041
 O2         7.282041       29.293488        5.633959
 O2         7.282041       22.370512        5.633959
 O2        20.198042       29.293488       18.549959
 O2        20.198042       22.370512       18.549959
 O2        18.549959       29.293488       20.198042
 O2        18.549959       22.370512       20.198042
 O2         5.633959       22.370512       18.549959
 O2         5.633959       29.293488       18.549959
 O2         7.282041       22.370512       20.198042
 O2         7.282041       29.293488       20.198042
 O2        20.198042       22.370512        7.282041
 O2        20.198042       29.293488        7.282041
 O2        18.549959       22.370512        5.633959
 O2        18.549959       29.293488        5.633959
 O2         7.282041       18.549959       16.377487
 O2         7.282041       18.549959        9.454512
 O2         5.633959       20.198042       16.377487
 O2         5.633959       20.198042        9.454512
 O2        18.549959        7.282041       16.377487
 O2        18.549959        7.282041        9.454512
 O2        20.198042        5.633959       16.377487
 O2        20.198042        5.633959        9.454512
 O2        18.549959       18.549959        9.454512
 O2        18.549959       18.549959       16.377487
 O2        20.198042       20.198042        9.454512
 O2        20.198042       20.198042       16.377487
 O2         7.282041        7.282041        9.454512
 O2         7.282041        7.282041       16.377487
 O2         5.633959        5.633959        9.454512
 O2         5.633959        5.633959       16.377487
 O2         5.633959       16.377487       20.198042
 O2         5.633959        9.454512       20.198042
 O2         7.282041       16.377487       18.549959
 O2         7.282041        9.454512       18.549959
 O2        20.198042       16.377487        5.633959
 O2        20.198042        9.454512        5.633959
 O2        18.549959       16.377487        7.282041
 O2        18.549959        9.454512        7.282041
 O2         5.633959        9.454512        5.633959
 O2         5.633959       16.377487        5.633959
 O2         7.282041        9.454512        7.282041
 O2         7.282041       16.377487        7.282041
 O2        20.198042        9.454512       20.198042
 O2        20.198042       16.377487       20.198042
 O2        18.549959        9.454512       18.549959
 O2        18.549959       16.377487       18.549959
 O2        16.377487        7.282041       18.549959
 O2         9.454512        7.282041       18.549959
 O2        16.377487        5.633959       20.198042
 O2         9.454512        5.633959       20.198042
 O2        16.377487       18.549959        7.282041
 O2         9.454512       18.549959        7.282041
 O2        16.377487       20.198042        5.633959
 O2         9.454512       20.198042        5.633959
 O2         9.454512       18.549959       18.549959
 O2        16.377487       18.549959       18.549959
 O2         9.454512       20.198042       20.198042
 O2        16.377487       20.198042       20.198042
 O2         9.454512        7.282041        7.282041
 O2        16.377487        7.282041        7.282041
 O2         9.454512        5.633959        5.633959
 O2        16.377487        5.633959        5.633959
