104
 generated by VMD
 O         6.458000        6.458000        6.458000
 O        19.374001       19.374001        6.458000
 O        19.374001        6.458000       19.374001
 O         6.458000       19.374001       19.374001
 O         6.458000        6.458000       19.374001
 O        19.374001       19.374001       19.374001
 O         6.458000       19.374001        6.458000
 O        19.374001        6.458000        6.458000
 O         7.282041        5.633959       29.293488
 O         7.282041        5.633959       22.370512
 O         5.633959        7.282041       29.293488
 O         5.633959        7.282041       22.370512
 O        18.549959       20.198042       29.293488
 O        18.549959       20.198042       22.370512
 O        20.198042       18.549959       29.293488
 O        20.198042       18.549959       22.370512
 O        18.549959        5.633959       22.370512
 O        18.549959        5.633959       29.293488
 O        20.198042        7.282041       22.370512
 O        20.198042        7.282041       29.293488
 O         7.282041       20.198042       22.370512
 O         7.282041       20.198042       29.293488
 O         5.633959       18.549959       22.370512
 O         5.633959       18.549959       29.293488
 O        29.293488        7.282041        5.633959
 O        22.370512        7.282041        5.633959
 O        29.293488        5.633959        7.282041
 O        22.370512        5.633959        7.282041
 O        29.293488       18.549959       20.198042
 O        22.370512       18.549959       20.198042
 O        29.293488       20.198042       18.549959
 O        22.370512       20.198042       18.549959
 O        22.370512       18.549959        5.633959
 O        29.293488       18.549959        5.633959
 O        22.370512       20.198042        7.282041
 O        29.293488       20.198042        7.282041
 O        22.370512        7.282041       20.198042
 O        29.293488        7.282041       20.198042
 O        22.370512        5.633959       18.549959
 O        29.293488        5.633959       18.549959
 O         5.633959       29.293488        7.282041
 O         5.633959       22.370512        7.282041
 O         7.282041       29.293488        5.633959
 O         7.282041       22.370512        5.633959
 O        20.198042       29.293488       18.549959
 O        20.198042       22.370512       18.549959
 O        18.549959       29.293488       20.198042
 O        18.549959       22.370512       20.198042
 O         5.633959       22.370512       18.549959
 O         5.633959       29.293488       18.549959
 O         7.282041       22.370512       20.198042
 O         7.282041       29.293488       20.198042
 O        20.198042       22.370512        7.282041
 O        20.198042       29.293488        7.282041
 O        18.549959       22.370512        5.633959
 O        18.549959       29.293488        5.633959
 O         7.282041       18.549959       16.377487
 O         7.282041       18.549959        9.454512
 O         5.633959       20.198042       16.377487
 O         5.633959       20.198042        9.454512
 O        18.549959        7.282041       16.377487
 O        18.549959        7.282041        9.454512
 O        20.198042        5.633959       16.377487
 O        20.198042        5.633959        9.454512
 O        18.549959       18.549959        9.454512
 O        18.549959       18.549959       16.377487
 O        20.198042       20.198042        9.454512
 O        20.198042       20.198042       16.377487
 O         7.282041        7.282041        9.454512
 O         7.282041        7.282041       16.377487
 O         5.633959        5.633959        9.454512
 O         5.633959        5.633959       16.377487
 O         5.633959       16.377487       20.198042
 O         5.633959        9.454512       20.198042
 O         7.282041       16.377487       18.549959
 O         7.282041        9.454512       18.549959
 O        20.198042       16.377487        5.633959
 O        20.198042        9.454512        5.633959
 O        18.549959       16.377487        7.282041
 O        18.549959        9.454512        7.282041
 O         5.633959        9.454512        5.633959
 O         5.633959       16.377487        5.633959
 O         7.282041        9.454512        7.282041
 O         7.282041       16.377487        7.282041
 O        20.198042        9.454512       20.198042
 O        20.198042       16.377487       20.198042
 O        18.549959        9.454512       18.549959
 O        18.549959       16.377487       18.549959
 O        16.377487        7.282041       18.549959
 O         9.454512        7.282041       18.549959
 O        16.377487        5.633959       20.198042
 O         9.454512        5.633959       20.198042
 O        16.377487       18.549959        7.282041
 O         9.454512       18.549959        7.282041
 O        16.377487       20.198042        5.633959
 O         9.454512       20.198042        5.633959
 O         9.454512       18.549959       18.549959
 O        16.377487       18.549959       18.549959
 O         9.454512       20.198042       20.198042
 O        16.377487       20.198042       20.198042
 O         9.454512        7.282041        7.282041
 O        16.377487        7.282041        7.282041
 O         9.454512        5.633959        5.633959
 O        16.377487        5.633959        5.633959
