552
generated by make_xyz.sh. Files needed 1x1x1_{sbu,ligand}.{xyz,txt}.Packing: 0.1 1.1,  0.1 1.1,  0.1 1.1
Zn1 7.579109 5.336891 5.336891
O1 6.458000 6.458000 6.458000
Zn1 5.336891 7.579109 5.336891
Zn1 5.336891 5.336891 7.579109
Zn1 7.579109 7.579109 7.579109
Zn1 18.252891 20.495109 5.336891
O1 19.374000 19.374000 6.458000
Zn1 20.495109 18.252891 5.336891
Zn1 20.495109 20.495109 7.579109
Zn1 18.252891 18.252891 7.579109
Zn1 18.252891 5.336891 20.495109
O1 19.374000 6.458000 19.374000
Zn1 20.495109 7.579109 20.495109
Zn1 20.495109 5.336891 18.252891
Zn1 18.252891 7.579109 18.252891
Zn1 7.579109 20.495109 20.495109
O1 6.458000 19.374000 19.374000
Zn1 5.336891 18.252891 20.495109
Zn1 5.336891 20.495109 18.252891
Zn1 7.579109 18.252891 18.252891
Zn1 5.336891 7.579109 20.495109
O1 6.458000 6.458000 19.374000
Zn1 7.579109 5.336891 20.495109
Zn1 5.336891 5.336891 18.252891
Zn1 7.579109 7.579109 18.252891
Zn1 20.495109 18.252891 20.495109
O1 19.374000 19.374000 19.374000
Zn1 18.252891 20.495109 20.495109
Zn1 20.495109 20.495109 18.252891
Zn1 18.252891 18.252891 18.252891
Zn1 5.336891 18.252891 5.336891
O1 6.458000 19.374000 6.458000
Zn1 7.579109 20.495109 5.336891
Zn1 5.336891 20.495109 7.579109
Zn1 7.579109 18.252891 7.579109
Zn1 20.495109 7.579109 5.336891
O1 19.374000 6.458000 6.458000
Zn1 18.252891 5.336891 5.336891
Zn1 20.495109 5.336891 7.579109
Zn1 18.252891 7.579109 7.579109
O2 7.282041 5.633959 29.293488
C1 6.458000 6.458000 28.707102
C2 6.458000 6.458000 27.221762
C3 7.307873 5.608127 26.526881
H1 7.876177 5.039823 26.989274
O2 7.282041 5.633959 22.370512
C1 6.458000 6.458000 22.956898
C2 6.458000 6.458000 24.442238
C3 7.307873 5.608127 25.137119
H1 7.876177 5.039823 24.674726
O2 5.633959 7.282041 29.293488
C3 5.608127 7.307873 26.526881
H1 5.039823 7.876177 26.989274
O2 5.633959 7.282041 22.370512
C3 5.608127 7.307873 25.137119
H1 5.039823 7.876177 24.674726
O2 18.549959 20.198041 29.293488
C1 19.374000 19.374000 28.707102
C2 19.374000 19.374000 27.221762
C3 18.524127 20.223873 26.526881
H1 17.955823 20.792177 26.989274
O2 18.549959 20.198041 22.370512
C1 19.374000 19.374000 22.956898
C2 19.374000 19.374000 24.442238
C3 18.524127 20.223873 25.137119
H1 17.955823 20.792177 24.674726
O2 20.198041 18.549959 29.293488
C3 20.223873 18.524127 26.526881
H1 20.792177 17.955823 26.989274
O2 20.198041 18.549959 22.370512
C3 20.223873 18.524127 25.137119
H1 20.792177 17.955823 24.674726
O2 18.549959 5.633959 22.370512
C1 19.374000 6.458000 22.956898
C2 19.374000 6.458000 24.442238
C3 18.524127 5.608127 25.137119
H1 17.955823 5.039823 24.674726
O2 18.549959 5.633959 29.293488
C1 19.374000 6.458000 28.707102
C2 19.374000 6.458000 27.221762
C3 18.524127 5.608127 26.526881
H1 17.955823 5.039823 26.989274
O2 20.198041 7.282041 22.370512
C3 20.223873 7.307873 25.137119
H1 20.792177 7.876177 24.674726
O2 20.198041 7.282041 29.293488
C3 20.223873 7.307873 26.526881
H1 20.792177 7.876177 26.989274
O2 7.282041 20.198041 22.370512
C1 6.458000 19.374000 22.956898
C2 6.458000 19.374000 24.442238
C3 7.307873 20.223873 25.137119
H1 7.876177 20.792177 24.674726
O2 7.282041 20.198041 29.293488
C1 6.458000 19.374000 28.707102
C2 6.458000 19.374000 27.221762
C3 7.307873 20.223873 26.526881
H1 7.876177 20.792177 26.989274
O2 5.633959 18.549959 22.370512
C3 5.608127 18.524127 25.137119
H1 5.039823 17.955823 24.674726
O2 5.633959 18.549959 29.293488
C3 5.608127 18.524127 26.526881
H1 5.039823 17.955823 26.989274
O2 29.293488 7.282041 5.633959
C1 28.707102 6.458000 6.458000
C2 27.221762 6.458000 6.458000
C3 26.526881 7.307873 5.608127
H1 26.989274 7.876177 5.039823
O2 22.370512 7.282041 5.633959
C1 22.956898 6.458000 6.458000
C2 24.442238 6.458000 6.458000
C3 25.137119 7.307873 5.608127
H1 24.674726 7.876177 5.039823
O2 29.293488 5.633959 7.282041
C3 26.526881 5.608127 7.307873
H1 26.989274 5.039823 7.876177
O2 22.370512 5.633959 7.282041
C3 25.137119 5.608127 7.307873
H1 24.674726 5.039823 7.876177
O2 29.293488 18.549959 20.198041
C1 28.707102 19.374000 19.374000
C2 27.221762 19.374000 19.374000
C3 26.526881 18.524127 20.223873
H1 26.989274 17.955823 20.792177
O2 22.370512 18.549959 20.198041
C1 22.956898 19.374000 19.374000
C2 24.442238 19.374000 19.374000
C3 25.137119 18.524127 20.223873
H1 24.674726 17.955823 20.792177
O2 29.293488 20.198041 18.549959
C3 26.526881 20.223873 18.524127
H1 26.989274 20.792177 17.955823
O2 22.370512 20.198041 18.549959
C3 25.137119 20.223873 18.524127
H1 24.674726 20.792177 17.955823
O2 22.370512 18.549959 5.633959
C1 22.956898 19.374000 6.458000
C2 24.442238 19.374000 6.458000
C3 25.137119 18.524127 5.608127
H1 24.674726 17.955823 5.039823
O2 29.293488 18.549959 5.633959
C1 28.707102 19.374000 6.458000
C2 27.221762 19.374000 6.458000
C3 26.526881 18.524127 5.608127
H1 26.989274 17.955823 5.039823
O2 22.370512 20.198041 7.282041
C3 25.137119 20.223873 7.307873
H1 24.674726 20.792177 7.876177
O2 29.293488 20.198041 7.282041
C3 26.526881 20.223873 7.307873
H1 26.989274 20.792177 7.876177
O2 22.370512 7.282041 20.198041
C1 22.956898 6.458000 19.374000
C2 24.442238 6.458000 19.374000
C3 25.137119 7.307873 20.223873
H1 24.674726 7.876177 20.792177
O2 29.293488 7.282041 20.198041
C1 28.707102 6.458000 19.374000
C2 27.221762 6.458000 19.374000
C3 26.526881 7.307873 20.223873
H1 26.989274 7.876177 20.792177
O2 22.370512 5.633959 18.549959
C3 25.137119 5.608127 18.524127
H1 24.674726 5.039823 17.955823
O2 29.293488 5.633959 18.549959
C3 26.526881 5.608127 18.524127
H1 26.989274 5.039823 17.955823
O2 5.633959 29.293488 7.282041
C1 6.458000 28.707102 6.458000
C2 6.458000 27.221762 6.458000
C3 5.608127 26.526881 7.307873
H1 5.039823 26.989274 7.876177
O2 5.633959 22.370512 7.282041
C1 6.458000 22.956898 6.458000
C2 6.458000 24.442238 6.458000
C3 5.608127 25.137119 7.307873
H1 5.039823 24.674726 7.876177
O2 7.282041 29.293488 5.633959
C3 7.307873 26.526881 5.608127
H1 7.876177 26.989274 5.039823
O2 7.282041 22.370512 5.633959
C3 7.307873 25.137119 5.608127
H1 7.876177 24.674726 5.039823
O2 20.198041 29.293488 18.549959
C1 19.374000 28.707102 19.374000
C2 19.374000 27.221762 19.374000
C3 20.223873 26.526881 18.524127
H1 20.792177 26.989274 17.955823
O2 20.198041 22.370512 18.549959
C1 19.374000 22.956898 19.374000
C2 19.374000 24.442238 19.374000
C3 20.223873 25.137119 18.524127
H1 20.792177 24.674726 17.955823
O2 18.549959 29.293488 20.198041
C3 18.524127 26.526881 20.223873
H1 17.955823 26.989274 20.792177
O2 18.549959 22.370512 20.198041
C3 18.524127 25.137119 20.223873
H1 17.955823 24.674726 20.792177
O2 5.633959 22.370512 18.549959
C1 6.458000 22.956898 19.374000
C2 6.458000 24.442238 19.374000
C3 5.608127 25.137119 18.524127
H1 5.039823 24.674726 17.955823
O2 5.633959 29.293488 18.549959
C1 6.458000 28.707102 19.374000
C2 6.458000 27.221762 19.374000
C3 5.608127 26.526881 18.524127
H1 5.039823 26.989274 17.955823
O2 7.282041 22.370512 20.198041
C3 7.307873 25.137119 20.223873
H1 7.876177 24.674726 20.792177
O2 7.282041 29.293488 20.198041
C3 7.307873 26.526881 20.223873
H1 7.876177 26.989274 20.792177
O2 20.198041 22.370512 7.282041
C1 19.374000 22.956898 6.458000
C2 19.374000 24.442238 6.458000
C3 20.223873 25.137119 7.307873
H1 20.792177 24.674726 7.876177
O2 20.198041 29.293488 7.282041
C1 19.374000 28.707102 6.458000
C2 19.374000 27.221762 6.458000
C3 20.223873 26.526881 7.307873
H1 20.792177 26.989274 7.876177
O2 18.549959 22.370512 5.633959
C3 18.524127 25.137119 5.608127
H1 17.955823 24.674726 5.039823
O2 18.549959 29.293488 5.633959
C3 18.524127 26.526881 5.608127
H1 17.955823 26.989274 5.039823
O2 7.282041 18.549959 16.377488
C1 6.458000 19.374000 15.791102
C2 6.458000 19.374000 14.305762
C3 7.307873 18.524127 13.610881
H1 7.876177 17.955823 14.073274
O2 7.282041 18.549959 9.454512
C1 6.458000 19.374000 10.040898
C2 6.458000 19.374000 11.526238
C3 7.307873 18.524127 12.221119
H1 7.876177 17.955823 11.758726
O2 5.633959 20.198041 16.377488
C3 5.608127 20.223873 13.610881
H1 5.039823 20.792177 14.073274
O2 5.633959 20.198041 9.454512
C3 5.608127 20.223873 12.221119
H1 5.039823 20.792177 11.758726
O2 18.549959 7.282041 16.377488
C1 19.374000 6.458000 15.791102
C2 19.374000 6.458000 14.305762
C3 18.524127 7.307873 13.610881
H1 17.955823 7.876177 14.073274
O2 18.549959 7.282041 9.454512
C1 19.374000 6.458000 10.040898
C2 19.374000 6.458000 11.526238
C3 18.524127 7.307873 12.221119
H1 17.955823 7.876177 11.758726
O2 20.198041 5.633959 16.377488
C3 20.223873 5.608127 13.610881
H1 20.792177 5.039823 14.073274
O2 20.198041 5.633959 9.454512
C3 20.223873 5.608127 12.221119
H1 20.792177 5.039823 11.758726
O2 18.549959 18.549959 9.454512
C1 19.374000 19.374000 10.040898
C2 19.374000 19.374000 11.526238
C3 18.524127 18.524127 12.221119
H1 17.955823 17.955823 11.758726
O2 18.549959 18.549959 16.377488
C1 19.374000 19.374000 15.791102
C2 19.374000 19.374000 14.305762
C3 18.524127 18.524127 13.610881
H1 17.955823 17.955823 14.073274
O2 20.198041 20.198041 9.454512
C3 20.223873 20.223873 12.221119
H1 20.792177 20.792177 11.758726
O2 20.198041 20.198041 16.377488
C3 20.223873 20.223873 13.610881
H1 20.792177 20.792177 14.073274
O2 7.282041 7.282041 9.454512
C1 6.458000 6.458000 10.040898
C2 6.458000 6.458000 11.526238
C3 7.307873 7.307873 12.221119
H1 7.876177 7.876177 11.758726
O2 7.282041 7.282041 16.377488
C1 6.458000 6.458000 15.791102
C2 6.458000 6.458000 14.305762
C3 7.307873 7.307873 13.610881
H1 7.876177 7.876177 14.073274
O2 5.633959 5.633959 9.454512
C3 5.608127 5.608127 12.221119
H1 5.039823 5.039823 11.758726
O2 5.633959 5.633959 16.377488
C3 5.608127 5.608127 13.610881
H1 5.039823 5.039823 14.073274
O2 5.633959 16.377488 20.198041
C1 6.458000 15.791102 19.374000
C2 6.458000 14.305762 19.374000
C3 5.608127 13.610881 20.223873
H1 5.039823 14.073274 20.792177
O2 5.633959 9.454512 20.198041
C1 6.458000 10.040898 19.374000
C2 6.458000 11.526238 19.374000
C3 5.608127 12.221119 20.223873
H1 5.039823 11.758726 20.792177
O2 7.282041 16.377488 18.549959
C3 7.307873 13.610881 18.524127
H1 7.876177 14.073274 17.955823
O2 7.282041 9.454512 18.549959
C3 7.307873 12.221119 18.524127
H1 7.876177 11.758726 17.955823
O2 20.198041 16.377488 5.633959
C1 19.374000 15.791102 6.458000
C2 19.374000 14.305762 6.458000
C3 20.223873 13.610881 5.608127
H1 20.792177 14.073274 5.039823
O2 20.198041 9.454512 5.633959
C1 19.374000 10.040898 6.458000
C2 19.374000 11.526238 6.458000
C3 20.223873 12.221119 5.608127
H1 20.792177 11.758726 5.039823
O2 18.549959 16.377488 7.282041
C3 18.524127 13.610881 7.307873
H1 17.955823 14.073274 7.876177
O2 18.549959 9.454512 7.282041
C3 18.524127 12.221119 7.307873
H1 17.955823 11.758726 7.876177
O2 5.633959 9.454512 5.633959
C1 6.458000 10.040898 6.458000
C2 6.458000 11.526238 6.458000
C3 5.608127 12.221119 5.608127
H1 5.039823 11.758726 5.039823
O2 5.633959 16.377488 5.633959
C1 6.458000 15.791102 6.458000
C2 6.458000 14.305762 6.458000
C3 5.608127 13.610881 5.608127
H1 5.039823 14.073274 5.039823
O2 7.282041 9.454512 7.282041
C3 7.307873 12.221119 7.307873
H1 7.876177 11.758726 7.876177
O2 7.282041 16.377488 7.282041
C3 7.307873 13.610881 7.307873
H1 7.876177 14.073274 7.876177
O2 20.198041 9.454512 20.198041
C1 19.374000 10.040898 19.374000
C2 19.374000 11.526238 19.374000
C3 20.223873 12.221119 20.223873
H1 20.792177 11.758726 20.792177
O2 20.198041 16.377488 20.198041
C1 19.374000 15.791102 19.374000
C2 19.374000 14.305762 19.374000
C3 20.223873 13.610881 20.223873
H1 20.792177 14.073274 20.792177
O2 18.549959 9.454512 18.549959
C3 18.524127 12.221119 18.524127
H1 17.955823 11.758726 17.955823
O2 18.549959 16.377488 18.549959
C3 18.524127 13.610881 18.524127
H1 17.955823 14.073274 17.955823
O2 16.377488 7.282041 18.549959
C1 15.791102 6.458000 19.374000
C2 14.305762 6.458000 19.374000
C3 13.610881 7.307873 18.524127
H1 14.073274 7.876177 17.955823
O2 9.454512 7.282041 18.549959
C1 10.040898 6.458000 19.374000
C2 11.526238 6.458000 19.374000
C3 12.221119 7.307873 18.524127
H1 11.758726 7.876177 17.955823
O2 16.377488 5.633959 20.198041
C3 13.610881 5.608127 20.223873
H1 14.073274 5.039823 20.792177
O2 9.454512 5.633959 20.198041
C3 12.221119 5.608127 20.223873
H1 11.758726 5.039823 20.792177
O2 16.377488 18.549959 7.282041
C1 15.791102 19.374000 6.458000
C2 14.305762 19.374000 6.458000
C3 13.610881 18.524127 7.307873
H1 14.073274 17.955823 7.876177
O2 9.454512 18.549959 7.282041
C1 10.040898 19.374000 6.458000
C2 11.526238 19.374000 6.458000
C3 12.221119 18.524127 7.307873
H1 11.758726 17.955823 7.876177
O2 16.377488 20.198041 5.633959
C3 13.610881 20.223873 5.608127
H1 14.073274 20.792177 5.039823
O2 9.454512 20.198041 5.633959
C3 12.221119 20.223873 5.608127
H1 11.758726 20.792177 5.039823
O2 9.454512 18.549959 18.549959
C1 10.040898 19.374000 19.374000
C2 11.526238 19.374000 19.374000
C3 12.221119 18.524127 18.524127
H1 11.758726 17.955823 17.955823
O2 16.377488 18.549959 18.549959
C1 15.791102 19.374000 19.374000
C2 14.305762 19.374000 19.374000
C3 13.610881 18.524127 18.524127
H1 14.073274 17.955823 17.955823
O2 9.454512 20.198041 20.198041
C3 12.221119 20.223873 20.223873
H1 11.758726 20.792177 20.792177
O2 16.377488 20.198041 20.198041
C3 13.610881 20.223873 20.223873
H1 14.073274 20.792177 20.792177
O2 9.454512 7.282041 7.282041
C1 10.040898 6.458000 6.458000
C2 11.526238 6.458000 6.458000
C3 12.221119 7.307873 7.307873
H1 11.758726 7.876177 7.876177
O2 16.377488 7.282041 7.282041
C1 15.791102 6.458000 6.458000
C2 14.305762 6.458000 6.458000
C3 13.610881 7.307873 7.307873
H1 14.073274 7.876177 7.876177
O2 9.454512 5.633959 5.633959
C3 12.221119 5.608127 5.608127
H1 11.758726 5.039823 5.039823
O2 16.377488 5.633959 5.633959
C3 13.610881 5.608127 5.608127
H1 14.073274 5.039823 5.039823
X 7.48636637811983 5.429633839225521 4.751402003965061
X 7.48636637811983 4.751402003965061 5.429633839225521
X 7.232699030380756 5.683301335830182 5.683301335830182
X 8.164598374029518 5.429633876463002 5.429633876463002
X 5.429633839225521 7.48636637811983 4.751402003965061
X 4.751402003965061 7.48636637811983 5.429633839225521
X 5.683301335830182 7.232699030380756 5.683301335830182
X 5.429633876463002 8.164598374029518 5.429633876463002
X 5.429633839225521 4.751402003965061 7.48636637811983
X 4.751402003965061 5.429633839225521 7.48636637811983
X 5.683301335830182 5.683301335830182 7.232699030380756
X 5.429633876463002 5.429633876463002 8.164598374029518
X 7.232699030380756 7.232699030380756 7.232699030380756
X 7.486366347995776 7.486366347995776 8.164598329121809
X 7.486366347995776 8.164598329121809 7.486366347995776
X 8.164598329121809 7.486366347995776 7.486366347995776
X 18.345634208993193 20.40236688963962 4.751401981511221
X 18.59930170204112 20.14869939659169 5.683301335830182
X 18.34563424267394 21.080598740240454 5.429633876463002
X 17.667402329938522 20.402366945774144 5.42963378664773
X 20.40236688963962 18.345634208993193 4.751401981511221
X 20.14869939659169 18.59930170204112 5.683301335830182
X 21.080598740240454 18.34563424267394 5.429633876463002
X 20.402366945774144 17.667402329938522 5.42963378664773
X 20.14869939659169 20.14869939659169 7.232699030380756
X 21.0805987177866 20.40236685951561 7.486366344439032
X 20.40236685951561 21.0805987177866 7.486366344439032
X 20.402366855958874 20.402366855958874 8.164598374029518
X 18.59930170204112 18.59930170204112 7.232699030380756
X 18.34563424267394 18.34563424267394 8.164598374029518
X 18.34563414930194 17.667402352392333 7.486366434254438
X 17.667402352392333 18.34563414930194 7.486366434254438
X 18.345634208993193 4.751401981511221 20.40236688963962
X 18.59930170204112 5.683301335830182 20.14869939659169
X 18.34563424267394 5.429633876463002 21.080598740240454
X 17.667402329938522 5.42963378664773 20.402366945774144
X 20.14869939659169 7.232699030380756 20.14869939659169
X 20.40236685951561 7.486366344439032 21.0805987177866
X 21.0805987177866 7.486366344439032 20.40236685951561
X 20.402366855958874 8.164598374029518 20.402366855958874
X 20.40236688963962 4.751401981511221 18.345634208993193
X 20.14869939659169 5.683301335830182 18.59930170204112
X 21.080598740240454 5.429633876463002 18.34563424267394
X 20.402366945774144 5.42963378664773 17.667402329938522
X 18.59930170204112 7.232699030380756 18.59930170204112
X 18.34563414930194 7.486366434254438 17.667402352392333
X 18.34563424267394 8.164598374029518 18.34563424267394
X 17.667402352392333 7.486366434254438 18.34563414930194
X 7.232699030380756 20.14869939659169 20.14869939659169
X 7.486366344439032 20.40236685951561 21.0805987177866
X 7.486366344439032 21.0805987177866 20.40236685951561
X 8.164598374029518 20.402366855958874 20.402366855958874
X 4.751401981511221 18.345634208993193 20.40236688963962
X 5.683301335830182 18.59930170204112 20.14869939659169
X 5.429633876463002 18.34563424267394 21.080598740240454
X 5.42963378664773 17.667402329938522 20.402366945774144
X 4.751401981511221 20.40236688963962 18.345634208993193
X 5.683301335830182 20.14869939659169 18.59930170204112
X 5.429633876463002 21.080598740240454 18.34563424267394
X 5.42963378664773 20.402366945774144 17.667402329938522
X 7.232699030380756 18.59930170204112 18.59930170204112
X 7.486366434254438 18.34563414930194 17.667402352392333
X 7.486366434254438 17.667402352392333 18.34563414930194
X 8.164598374029518 18.34563424267394 18.34563424267394
X 4.751402003965061 7.48636637811983 20.402366893196355
X 5.683301335830182 7.232699030380756 20.14869939659169
X 5.4296338729062645 7.486366344439032 21.0805987177866
X 5.429633876463002 8.164598374029518 20.402366855958874
X 7.48636637811983 4.751402003965061 20.402366893196355
X 7.232699030380756 5.683301335830182 20.14869939659169
X 7.486366344439032 5.4296338729062645 21.0805987177866
X 8.164598374029518 5.429633876463002 20.402366855958874
X 5.429633842782255 4.751401981511221 18.345634208993193
X 4.751401981511221 5.429633842782255 18.345634208993193
X 5.683301335830182 5.683301335830182 18.59930170204112
X 5.42963378664773 5.42963378664773 17.667402329938522
X 7.232699030380756 7.232699030380756 18.59930170204112
X 7.486366437811171 7.486366437811171 17.667402374846144
X 7.486366344439032 8.164598351575663 18.345634239117203
X 8.164598351575663 7.486366344439032 18.345634239117203
X 20.14869939659169 18.59930170204112 20.14869939659169
X 20.402366855958874 18.34563424267394 21.080598740240454
X 21.080598740240454 18.34563424267394 20.402366855958874
X 20.402366945774144 17.667402329938522 20.402366945774144
X 18.59930170204112 20.14869939659169 20.14869939659169
X 18.34563424267394 20.402366855958874 21.080598740240454
X 18.34563424267394 21.080598740240454 20.402366855958874
X 17.667402329938522 20.402366945774144 20.402366945774144
X 20.14869939659169 20.14869939659169 18.59930170204112
X 21.080598740240454 20.402366855958874 18.34563424267394
X 20.402366855958874 21.080598740240454 18.34563424267394
X 20.402366945774144 20.402366945774144 17.667402329938522
X 18.59930170204112 18.59930170204112 18.59930170204112
X 18.34563415285867 18.34563415285867 17.667402329938522
X 18.34563415285867 17.667402329938522 18.34563415285867
X 17.667402329938522 18.34563415285867 18.34563415285867
X 5.429633842782255 18.345634208993193 4.751401981511221
X 4.751401981511221 18.345634208993193 5.429633842782255
X 5.683301335830182 18.59930170204112 5.683301335830182
X 5.42963378664773 17.667402329938522 5.42963378664773
X 7.48636637811983 20.402366893196355 4.751402003965061
X 7.232699030380756 20.14869939659169 5.683301335830182
X 7.486366344439032 21.0805987177866 5.4296338729062645
X 8.164598374029518 20.402366855958874 5.429633876463002
X 4.751402003965061 20.402366893196355 7.48636637811983
X 5.683301335830182 20.14869939659169 7.232699030380756
X 5.4296338729062645 21.0805987177866 7.486366344439032
X 5.429633876463002 20.402366855958874 8.164598374029518
X 7.232699030380756 18.59930170204112 7.232699030380756
X 7.486366344439032 18.345634239117203 8.164598351575663
X 7.486366437811171 17.667402374846144 7.486366437811171
X 8.164598351575663 18.345634239117203 7.486366344439032
X 20.402366893196355 7.48636637811983 4.751402003965061
X 20.14869939659169 7.232699030380756 5.683301335830182
X 21.0805987177866 7.486366344439032 5.4296338729062645
X 20.402366855958874 8.164598374029518 5.429633876463002
X 18.345634208993193 5.429633842782255 4.751401981511221
X 18.345634208993193 4.751401981511221 5.429633842782255
X 18.59930170204112 5.683301335830182 5.683301335830182
X 17.667402329938522 5.42963378664773 5.42963378664773
X 20.402366893196355 4.751402003965061 7.48636637811983
X 20.14869939659169 5.683301335830182 7.232699030380756
X 21.0805987177866 5.4296338729062645 7.486366344439032
X 20.402366855958874 5.429633876463002 8.164598374029518
X 18.59930170204112 7.232699030380756 7.232699030380756
X 18.345634239117203 7.486366344439032 8.164598351575663
X 18.345634239117203 8.164598351575663 7.486366344439032
X 17.667402374846144 7.486366437811171 7.486366437811171
